Circuit: * C:\Users\jlspa\Documents\LTspiceXVII\Elektronik_Modul\Uebung_04\Aufgabe1.asc


Date: Fri May 15 11:23:02 2020
Total elapsed time: 0.028 seconds.

tnom = 27
temp = 27
method = trap
totiter = 0
traniter = 0
tranpoints = 0
accept = 0
rejected = 0
matrix size = 4
fillins = 1
solver = Normal

