Circuit: * C:\Users\kevin\Desktop\Aufgabe3.asc

.step vbe=0.001
.step vbe=0.021
.step vbe=0.041
.step vbe=0.061
.step vbe=0.081
.step vbe=0.1

Date: Sat May 30 13:41:36 2020
Total elapsed time: 0.113 seconds.

tnom = 27
temp = 27
method = trap
totiter = 108
traniter = 0
tranpoints = 0
accept = 0
rejected = 0
matrix size = 10
fillins = 0
solver = Normal
Matrix Compiler1: off  0.9/0.5/[0.1]
Matrix Compiler2: 740 bytes object code size  0.4/0.7/[0.1]

