Circuit: * D:\UNI\MASTER\Elektronik SS2020\Blatt0\Aufgabe3.asc


Date: Thu Apr 16 07:05:03 2020
Total elapsed time: 0.074 seconds.

tnom = 27
temp = 27
method = trap
totiter = 0
traniter = 0
tranpoints = 0
accept = 0
rejected = 0
matrix size = 3
fillins = 0
solver = Normal

