Circuit: * C:\UNI\Elektronik2020\Blatt0\Aufgabe3a.asc


Date: Wed Apr 22 08:12:53 2020
Total elapsed time: 0.028 seconds.

tnom = 27
temp = 27
method = trap
totiter = 0
traniter = 0
tranpoints = 0
accept = 0
rejected = 0
matrix size = 3
fillins = 0
solver = Normal

