Circuit: * C:\Users\jlspa\Documents\LTspiceXVII\Elektronik_Modul\Uebung_01\Aufgabe2.asc

Direct Newton iteration for .op point succeeded.

Date: Wed Apr 22 20:28:48 2020
Total elapsed time: 2.848 seconds.

tnom = 27
temp = 27
method = trap
totiter = 3
traniter = 0
tranpoints = 0
accept = 0
rejected = 0
matrix size = 13
fillins = 6
solver = Normal
Matrix Compiler1: 1.33 KB object code size
Matrix Compiler2: 1.28 KB object code size
