Circuit: * C:\Users\jlspa\Documents\LTspiceXVII\Elektronik_Modul\Uebung_02\Aufgabe2.asc


Date: Wed Apr 29 16:26:46 2020
Total elapsed time: 0.030 seconds.

tnom = 27
temp = 27
method = trap
totiter = 0
traniter = 0
tranpoints = 0
accept = 0
rejected = 0
matrix size = 2
fillins = 0
solver = Normal

