Circuit: * C:\UNI\Elektronik2020\Blatt08\spice\Aufgabe2.asc

.step vbe=0.001
.step vbe=0.021
.step vbe=0.041
.step vbe=0.061
.step vbe=0.081
.step vbe=0.1

Date: Sun Jun 14 19:32:46 2020
Total elapsed time: 0.255 seconds.

tnom = 27
temp = 27
method = trap
totiter = 84
traniter = 0
tranpoints = 0
accept = 0
rejected = 0
matrix size = 7
fillins = 0
solver = Normal
Matrix Compiler1:      16 opcodes
Matrix Compiler2: off
